/*--------------------------------*- C++ -*----------------------------------*\
  =========                 |
  \\      /  F ield         | OpenFOAM: The Open Source CFD Toolbox
   \\    /   O peration     | Website:  https://openfoam.org
    \\  /    A nd           | Version:  6
     \\/     M anipulation  |
\*---------------------------------------------------------------------------*/
FoamFile
{
    version     2.0;
    format      binary;
    class       volScalarField;
    location    "0";
    object      epsilon;
}
// * * * * * * * * * * * * * * * * * * * * * * * * * * * * * * * * * * * * * //
#include	"flowCondition"
dimensions      [ 0 2 -3 0 0 0 0 ];

internalField   uniform $epsilon;

boundaryField
{
    Inlet
    {
        type            fixedValue;
        value           $internalField;
    }

    Outlet          
    {
        type            inletOutlet;
        inletValue      $internalField;
        value           $internalField;
    }

    ".*"
    {
        type            epsilonWallFunction;
        value           $internalField;
    }
	Ceiling
	{
		type            symmetry;
	}
}

// ************************************************************************* //
