/*--------------------------------*- C++ -*----------------------------------*\
  =========                 |
  \\      /  F ield         | OpenFOAM: The Open Source CFD Toolbox
   \\    /   O peration     | Website:  https://openfoam.org
    \\  /    A nd           | Version:  6
     \\/     M anipulation  |
\*---------------------------------------------------------------------------*/
FoamFile
{
    version     2.0;
    format      binary;
    class       volScalarField;
    location    "0";
    object      nut;
}
// * * * * * * * * * * * * * * * * * * * * * * * * * * * * * * * * * * * * * //
#include	"flowCondition"
dimensions      [ 0 2 -1 0 0 0 0 ];

internalField   uniform $nut;

boundaryField
{
    Riverbed
    {
        type            nutkRoughWallFunction;
        Ks              uniform $ks;
        Cs              uniform 0.253;
        value           $internalField;
    }
    ".*"
    {
        type            nutkWallFunction;
        value           $internalField;
    }
    Inlet
    {
        type            calculated;
        value           $internalField;
    }
    Outlet          
    {
        type            inletOutlet;
        inletValue      $internalField;
        value           $internalField;
    }
	Ceiling
	{
		type            symmetry;
	}
}

// ************************************************************************* //
